7
Coordinates from ORCA-job mp_MEP E -643.371606123595
  P      -1.034220     -0.234256      0.672434
  O      -1.004065      0.890081     -0.334695
  O      -0.003166     -1.329504      0.557597
  O      -2.065823     -0.232403      1.765329
  H       0.881055      0.866924     -1.063283
  O       1.748944      0.417505     -1.047631
  H       1.477276     -0.378346     -0.549750
7
Coordinates from ORCA-job mp_MEP E -643.369768485671
  P      -1.034044     -0.248299      0.587158
  O      -1.225837      0.712669     -0.559145
  O      -0.040731     -1.376010      0.425714
  O      -1.782346     -0.070360      1.872303
  H       0.961790      0.977040     -0.875055
  O       1.760535      0.421325     -0.882507
  H       1.360632     -0.416365     -0.568468
7
Coordinates from ORCA-job mp_MEP E -643.366295487690
  P      -1.041243     -0.267745      0.531838
  O      -1.397359      0.564903     -0.670730
  O      -0.067280     -1.412563      0.359896
  O      -1.590025      0.060446      1.888100
  H       1.058861      1.061368     -0.682822
  O       1.757123      0.407150     -0.838970
  H       1.279924     -0.413559     -0.587312
7
Coordinates from ORCA-job mp_MEP E -643.362842226381
  P      -1.048582     -0.281023      0.485985
  O      -1.545602      0.437394     -0.736122
  O      -0.079871     -1.432851      0.317975
  O      -1.441061      0.169951      1.863005
  H       1.169366      1.102818     -0.481115
  O       1.725844      0.403563     -0.853890
  H       1.219905     -0.399851     -0.595837
7
Coordinates from ORCA-job mp_MEP E -643.360897434449
  P      -1.049645     -0.287746      0.434389
  O      -1.693936      0.313340     -0.779217
  O      -0.090087     -1.450577      0.274598
  O      -1.284616      0.282788      1.805092
  H       1.286857      1.097482     -0.275228
  O       1.654209      0.429252     -0.872360
  H       1.177219     -0.384538     -0.587274
7
Coordinates from ORCA-job mp_MEP E -643.360891183573
  P      -1.026634     -0.286009      0.364497
  O      -1.833264      0.185167     -0.806181
  O      -0.100917     -1.480548      0.220125
  O      -1.078996      0.417352      1.694351
  H       1.394867      1.046370     -0.064349
  O       1.508318      0.491858     -0.850780
  H       1.136624     -0.374189     -0.557662
7
Coordinates from ORCA-job mp_MEP E -643.358621114164
  P      -0.952384     -0.258279      0.280195
  O      -1.894606      0.109416     -0.821283
  O      -0.072793     -1.498874      0.155638
  O      -0.881767      0.518207      1.569324
  H       1.452532      0.993799      0.067814
  O       1.264141      0.537728     -0.765747
  H       1.084877     -0.401997     -0.485940
7
Coordinates from ORCA-job mp_MEP E -643.349297626578
  P      -0.863684     -0.197960      0.230671
  O      -1.861767      0.107220     -0.839675
  O       0.001914     -1.474475      0.110209
  O      -0.828012      0.527836      1.546644
  H       1.455648      0.990679      0.074043
  O       1.086894      0.535065     -0.701601
  H       1.009007     -0.488364     -0.420291
7
Coordinates from ORCA-job mp_MEP E -643.341389757132
  P      -0.797524     -0.128443      0.196179
  O      -1.846609      0.103277     -0.844804
  O       0.077717     -1.437926      0.073835
  O      -0.819464      0.519899      1.548390
  H       1.448933      1.009041      0.069249
  O       1.005135      0.553887     -0.665461
  H       0.931811     -0.619736     -0.377388
7
Coordinates from ORCA-job mp_MEP E -643.349793503490
  P      -0.748795     -0.070942      0.170562
  O      -1.834623      0.099226     -0.844534
  O       0.105138     -1.431728      0.061546
  O      -0.815320      0.514213      1.549485
  H       1.438699      1.025493      0.073533
  O       0.946302      0.610974     -0.655463
  H       0.908598     -0.747236     -0.355128
7
Coordinates from ORCA-job mp_MEP E -643.366531894166
  P      -0.689325     -0.002205      0.142461
  O      -1.802889      0.104183     -0.853371
  O       0.126781     -1.437898      0.055507
  O      -0.792407      0.516065      1.548685
  H       1.403858      1.048537      0.081690
  O       0.850682      0.692489     -0.634141
  H       0.903301     -0.921170     -0.340831
7
Coordinates from ORCA-job mp_MEP E -643.384339610751
  P      -0.608764      0.057764      0.063172
  O      -1.791833      0.171885     -0.845512
  O       0.034786     -1.488625     -0.083671
  O      -0.616182      0.477213      1.512727
  H       1.228282      1.236670      0.088944
  O       0.773056      0.799508     -0.647063
  H       0.980654     -1.254416     -0.088597
7
Coordinates from ORCA-job mp_MEP E -643.387518318594
  P      -0.533539      0.071693     -0.008086
  O      -1.776713      0.209778     -0.824715
  O       0.063587     -1.471821     -0.285708
  O      -0.424018      0.361892      1.472122
  H       1.113142      1.404408      0.063304
  O       0.718604      0.967968     -0.707798
  H       0.838937     -1.543918      0.290881
7
Coordinates from ORCA-job mp_MEP E -643.388399760260
  P      -0.475068      0.068172     -0.040207
  O      -1.755949      0.201897     -0.802951
  O       0.171917     -1.449355     -0.365836
  O      -0.316786      0.275496      1.452719
  H       1.073320      1.501759      0.034329
  O       0.680949      1.074158     -0.744207
  H       0.621617     -1.672126      0.466154
